  
       XFOIL         Version 6.99
  
 Calculated polar for: NACA 0012                                       
  
 1 1 Reynolds number fixed          Mach number fixed         
  
 xtrf =   1.000 (top)        1.000 (bottom)  
 Mach =   0.000     Re =   100.000 e 6     Ncrit =   8.000  8.000
  
   alpha    CL        CD       CDp       CM     Top_Xtr  Bot_Xtr  Top_Itr  Bot_Itr
  ------ -------- --------- --------- -------- -------- -------- -------- --------
  -8.000  -0.9231   0.00625   0.00159   0.0042   0.4202   0.0109  92.4401 196.4951
  -7.500  -0.8665   0.00607   0.00147   0.0041   0.3997   0.0118  95.6327 197.0728
  -7.000  -0.8097   0.00591   0.00134   0.0040   0.3776   0.0133  99.0739 197.9577
  -6.500  -0.7526   0.00577   0.00124   0.0038   0.3582   0.0148 102.1029 198.7895
  -6.000  -0.6954   0.00563   0.00113   0.0036   0.3394   0.0168 105.0370 199.8300
