  
       XFOIL         Version 6.99
  
 Calculated polar for: NACA 0012                                       
  
 1 1 Reynolds number fixed          Mach number fixed         
  
 xtrf =   1.000 (top)        1.000 (bottom)  
 Mach =   0.000     Re =   100.000 e 6     Ncrit =  10.000 10.000
  
   alpha    CL        CD       CDp       CM     Top_Xtr  Bot_Xtr  Top_Itr  Bot_Itr
  ------ -------- --------- --------- -------- -------- -------- -------- --------
  -8.000  -0.9231   0.00614   0.00160   0.0043   0.4713   0.0120  80.8788 200.6787
  -7.500  -0.8665   0.00596   0.00148   0.0041   0.4494   0.0134  84.1093 201.6531
  -6.500  -0.7525   0.00566   0.00125   0.0038   0.4055   0.0166  90.6089 203.6693
  -6.000  -0.6953   0.00552   0.00115   0.0036   0.3847   0.0188  93.6980 204.9499
  -5.500  -0.6378   0.00541   0.00105   0.0033   0.3620   0.0214  97.0869 206.3288
  -5.000  -0.5803   0.00529   0.00097   0.0031   0.3409   0.0246 100.2340 207.9227
  -4.500  -0.5226   0.00519   0.00089   0.0028   0.3190   0.0290 103.5085 209.8173
  -4.000  -0.4648   0.00510   0.00082   0.0025   0.2968   0.0345 106.8498 211.9092
